<?xml version="1.0" encoding="UTF-8"?>

<!-- generated on Sat May  9 16:44:05 2020 by Eclipse SUMO netconvert Version 1.6.0
<configuration xmlns:xsi="http://www.w3.org/2001/XMLSchema-instance" xsi:noNamespaceSchemaLocation="http://sumo.dlr.de/xsd/netconvertConfiguration.xsd">

    <input>
        <node-files value="intersection.nod.xml"/>
        <edge-files value="intersection.edg.xml"/>
        <connection-files value="intersection.con.xml"/>
    </input>

    <output>
        <output-file value="intersection.net.xml"/>
    </output>

    <report>
        <verbose value="true"/>
        <aggregate-warnings value="5"/>
    </report>

</configuration>
-->

<net version="1.6" junctionCornerDetail="5" limitTurnSpeed="5.50" xmlns:xsi="http://www.w3.org/2001/XMLSchema-instance" xsi:noNamespaceSchemaLocation="http://sumo.dlr.de/xsd/net_file.xsd">

    <location netOffset="100.00,100.00" convBoundary="0.00,0.00,200.00,200.00" origBoundary="-100.00,-100.00,100.00,100.00" projParameter="!"/>

    <edge id=":0_0" function="internal">
        <lane id=":0_0_0" index="0" disallow="pedestrian" speed="15.28" length="27.20" shape="92.00,113.60 92.00,86.40"/>
        <lane id=":0_0_1" index="1" disallow="pedestrian" speed="15.28" length="27.20" shape="95.20,113.60 95.20,86.40"/>
        <lane id=":0_0_2" index="2" disallow="pedestrian" speed="15.28" length="27.20" shape="98.40,113.60 98.40,86.40"/>
    </edge>
    <edge id=":0_3" function="internal">
        <lane id=":0_3_0" index="0" disallow="pedestrian" speed="15.28" length="27.20" shape="113.60,108.00 86.40,108.00"/>
        <lane id=":0_3_1" index="1" disallow="pedestrian" speed="15.28" length="27.20" shape="113.60,104.80 86.40,104.80"/>
        <lane id=":0_3_2" index="2" disallow="pedestrian" speed="15.28" length="27.20" shape="113.60,101.60 86.40,101.60"/>
    </edge>
    <edge id=":0_6" function="internal">
        <lane id=":0_6_0" index="0" disallow="pedestrian" speed="15.28" length="27.20" shape="108.00,86.40 108.00,113.60"/>
        <lane id=":0_6_1" index="1" disallow="pedestrian" speed="15.28" length="27.20" shape="104.80,86.40 104.80,113.60"/>
        <lane id=":0_6_2" index="2" disallow="pedestrian" speed="15.28" length="27.20" shape="101.60,86.40 101.60,113.60"/>
    </edge>
    <edge id=":0_9" function="internal">
        <lane id=":0_9_0" index="0" allow="pedestrian" speed="15.28" length="27.28" width="2.00" shape="86.40,89.40 113.60,89.40"/>
        <lane id=":0_9_1" index="1" disallow="pedestrian" speed="15.28" length="27.28" shape="86.40,92.00 113.60,92.00"/>
        <lane id=":0_9_2" index="2" disallow="pedestrian" speed="15.28" length="27.28" shape="86.40,92.00 94.50,92.50 100.00,93.60 105.50,94.70 113.60,95.20"/>
    </edge>
    <edge id=":0_12" function="internal">
        <lane id=":0_12_0" index="0" disallow="pedestrian" speed="11.84" length="17.34" shape="86.40,95.20 95.85,96.35 102.60,99.80 102.74,100.00"/>
    </edge>
    <edge id=":0_13" function="internal">
        <lane id=":0_13_0" index="0" disallow="pedestrian" speed="11.36" length="15.07" shape="86.40,95.20 94.45,96.35 100.20,99.80 100.32,100.00"/>
    </edge>
    <edge id=":0_14" function="internal">
        <lane id=":0_14_0" index="0" disallow="pedestrian" speed="5.58" length="4.67" shape="86.40,95.20 90.00,97.60 91.20,100.00"/>
        <lane id=":0_14_1" index="1" disallow="pedestrian" speed="3.65" length="4.67" shape="86.40,98.40 87.60,99.20 88.00,100.00"/>
    </edge>
    <edge id=":0_16" function="internal">
        <lane id=":0_16_0" index="0" disallow="pedestrian" speed="11.84" length="14.95" shape="102.74,100.00 106.65,105.55 108.00,113.60"/>
    </edge>
    <edge id=":0_17" function="internal">
        <lane id=":0_17_0" index="0" disallow="pedestrian" speed="11.36" length="14.60" shape="100.32,100.00 103.65,105.55 104.80,113.60"/>
    </edge>
    <edge id=":0_18" function="internal">
        <lane id=":0_18_0" index="0" disallow="pedestrian" speed="5.58" length="7.01" shape="91.20,100.00 90.00,102.40 86.40,104.80"/>
    </edge>
    <edge id=":0_19" function="internal">
        <lane id=":0_19_0" index="0" disallow="pedestrian" speed="3.65" length="2.34" shape="88.00,100.00 87.60,100.80 86.40,101.60"/>
    </edge>
    <edge id=":0_c0" function="crossing" crossingEdges="4o 4i">
        <lane id=":0_c0_0" index="0" allow="pedestrian" speed="1.00" length="19.20" width="4.00" shape="109.60,111.60 90.40,111.60"/>
    </edge>
    <edge id=":0_c1" function="crossing" crossingEdges="2o 2i">
        <lane id=":0_c1_0" index="0" allow="pedestrian" speed="1.00" length="19.20" width="4.00" shape="111.60,90.40 111.60,109.60"/>
    </edge>
    <edge id=":0_c2" function="crossing" crossingEdges="3o 3i">
        <lane id=":0_c2_0" index="0" allow="pedestrian" speed="1.00" length="19.20" width="4.00" shape="90.40,88.40 109.60,88.40"/>
    </edge>
    <edge id=":0_c3" function="crossing" crossingEdges="1o 1i">
        <lane id=":0_c3_0" index="0" allow="pedestrian" speed="1.00" length="19.20" width="4.00" shape="88.40,109.60 88.40,90.40"/>
    </edge>
    <edge id=":0_w0" function="walkingarea">
        <lane id=":0_w0_0" index="0" allow="pedestrian" speed="1.00" length="3.30" width="4.00" shape="86.40,109.60 86.40,111.60 88.40,113.60 90.40,113.60 90.29,112.38 89.96,111.38 89.40,110.60 88.62,110.04 87.62,109.71"/>
    </edge>
    <edge id=":0_w1" function="walkingarea">
        <lane id=":0_w1_0" index="0" allow="pedestrian" speed="1.00" length="3.30" width="4.00" shape="109.60,113.60 111.60,113.60 113.60,111.60 113.60,109.60 112.38,109.71 111.38,110.04 110.60,110.60 110.04,111.38 109.71,112.38"/>
    </edge>
    <edge id=":0_w2" function="walkingarea">
        <lane id=":0_w2_0" index="0" allow="pedestrian" speed="1.00" length="3.30" width="4.00" shape="113.60,90.40 113.60,88.40 111.60,86.40 109.60,86.40 109.71,87.62 110.04,88.62 110.60,89.40 111.38,89.96 112.38,90.29"/>
    </edge>
    <edge id=":0_w3" function="walkingarea">
        <lane id=":0_w3_0" index="0" allow="pedestrian" speed="1.00" length="3.30" width="4.00" shape="90.40,86.40 88.40,86.40 86.40,88.40 86.40,90.40 87.62,90.29 88.62,89.96 89.40,89.40 89.96,88.62 90.29,87.62"/>
    </edge>
    <edge id=":1_0" function="internal">
        <lane id=":1_0_0" index="0" disallow="pedestrian" speed="3.65" length="4.67" shape="0.00,101.60 -1.20,100.80 -1.60,100.00 -1.20,99.20 0.00,98.40"/>
    </edge>
    <edge id=":1_w0" function="walkingarea">
        <lane id=":1_w0_0" index="0" allow="pedestrian" speed="1.00" length="21.20" width="2.00" shape="0.00,90.40 0.00,88.40 0.00,111.60 0.00,109.60"/>
    </edge>
    <edge id=":2_0" function="internal">
        <lane id=":2_0_0" index="0" disallow="pedestrian" speed="3.65" length="4.67" shape="200.00,98.40 201.20,99.20 201.60,100.00 201.20,100.80 200.00,101.60"/>
    </edge>
    <edge id=":2_w0" function="walkingarea">
        <lane id=":2_w0_0" index="0" allow="pedestrian" speed="1.00" length="21.20" width="2.00" shape="200.00,109.60 200.00,111.60 200.00,88.40 200.00,90.40"/>
    </edge>
    <edge id=":3_0" function="internal">
        <lane id=":3_0_0" index="0" disallow="pedestrian" speed="3.65" length="4.67" shape="98.40,0.00 99.20,-1.20 100.00,-1.60 100.80,-1.20 101.60,0.00"/>
    </edge>
    <edge id=":3_w0" function="walkingarea">
        <lane id=":3_w0_0" index="0" allow="pedestrian" speed="1.00" length="21.20" width="2.00" shape="109.60,0.00 111.60,0.00 88.40,0.00 90.40,0.00"/>
    </edge>
    <edge id=":4_0" function="internal">
        <lane id=":4_0_0" index="0" disallow="pedestrian" speed="3.65" length="4.67" shape="101.60,200.00 100.80,201.20 100.00,201.60 99.20,201.20 98.40,200.00"/>
    </edge>
    <edge id=":4_w0" function="walkingarea">
        <lane id=":4_w0_0" index="0" allow="pedestrian" speed="1.00" length="21.20" width="2.00" shape="90.40,200.00 88.40,200.00 111.60,200.00 109.60,200.00"/>
    </edge>

    <edge id="1i" from="1" to="0" priority="78">
        <lane id="1i_0" index="0" allow="pedestrian" speed="19.44" length="86.40" width="2.00" shape="0.00,89.40 86.40,89.40"/>
        <lane id="1i_1" index="1" disallow="pedestrian" speed="19.44" length="86.40" shape="0.00,92.00 86.40,92.00"/>
        <lane id="1i_2" index="2" disallow="pedestrian" speed="19.44" length="86.40" shape="0.00,95.20 86.40,95.20"/>
        <lane id="1i_3" index="3" disallow="pedestrian" speed="19.44" length="86.40" shape="0.00,98.40 86.40,98.40"/>
    </edge>
    <edge id="1o" from="0" to="1" priority="46">
        <lane id="1o_0" index="0" allow="pedestrian" speed="11.11" length="86.40" width="2.00" shape="86.40,110.60 0.00,110.60"/>
        <lane id="1o_1" index="1" disallow="pedestrian" speed="11.11" length="86.40" shape="86.40,108.00 0.00,108.00"/>
        <lane id="1o_2" index="2" disallow="pedestrian" speed="11.11" length="86.40" shape="86.40,104.80 0.00,104.80"/>
        <lane id="1o_3" index="3" disallow="pedestrian" speed="11.11" length="86.40" shape="86.40,101.60 0.00,101.60"/>
    </edge>
    <edge id="2i" from="2" to="0" priority="78">
        <lane id="2i_0" index="0" allow="pedestrian" speed="19.44" length="86.40" width="2.00" shape="200.00,110.60 113.60,110.60"/>
        <lane id="2i_1" index="1" disallow="pedestrian" speed="19.44" length="86.40" shape="200.00,108.00 113.60,108.00"/>
        <lane id="2i_2" index="2" disallow="pedestrian" speed="19.44" length="86.40" shape="200.00,104.80 113.60,104.80"/>
        <lane id="2i_3" index="3" disallow="pedestrian" speed="19.44" length="86.40" shape="200.00,101.60 113.60,101.60"/>
    </edge>
    <edge id="2o" from="0" to="2" priority="46">
        <lane id="2o_0" index="0" allow="pedestrian" speed="11.11" length="86.40" width="2.00" shape="113.60,89.40 200.00,89.40"/>
        <lane id="2o_1" index="1" disallow="pedestrian" speed="11.11" length="86.40" shape="113.60,92.00 200.00,92.00"/>
        <lane id="2o_2" index="2" disallow="pedestrian" speed="11.11" length="86.40" shape="113.60,95.20 200.00,95.20"/>
        <lane id="2o_3" index="3" disallow="pedestrian" speed="11.11" length="86.40" shape="113.60,98.40 200.00,98.40"/>
    </edge>
    <edge id="3i" from="3" to="0" priority="78">
        <lane id="3i_0" index="0" allow="pedestrian" speed="19.44" length="86.40" width="2.00" shape="110.60,0.00 110.60,86.40"/>
        <lane id="3i_1" index="1" disallow="pedestrian" speed="19.44" length="86.40" shape="108.00,0.00 108.00,86.40"/>
        <lane id="3i_2" index="2" disallow="pedestrian" speed="19.44" length="86.40" shape="104.80,0.00 104.80,86.40"/>
        <lane id="3i_3" index="3" disallow="pedestrian" speed="19.44" length="86.40" shape="101.60,0.00 101.60,86.40"/>
    </edge>
    <edge id="3o" from="0" to="3" priority="46">
        <lane id="3o_0" index="0" allow="pedestrian" speed="11.11" length="86.40" width="2.00" shape="89.40,86.40 89.40,0.00"/>
        <lane id="3o_1" index="1" disallow="pedestrian" speed="11.11" length="86.40" shape="92.00,86.40 92.00,0.00"/>
        <lane id="3o_2" index="2" disallow="pedestrian" speed="11.11" length="86.40" shape="95.20,86.40 95.20,0.00"/>
        <lane id="3o_3" index="3" disallow="pedestrian" speed="11.11" length="86.40" shape="98.40,86.40 98.40,0.00"/>
    </edge>
    <edge id="4i" from="4" to="0" priority="78">
        <lane id="4i_0" index="0" allow="pedestrian" speed="19.44" length="86.40" width="2.00" shape="89.40,200.00 89.40,113.60"/>
        <lane id="4i_1" index="1" disallow="pedestrian" speed="19.44" length="86.40" shape="92.00,200.00 92.00,113.60"/>
        <lane id="4i_2" index="2" disallow="pedestrian" speed="19.44" length="86.40" shape="95.20,200.00 95.20,113.60"/>
        <lane id="4i_3" index="3" disallow="pedestrian" speed="19.44" length="86.40" shape="98.40,200.00 98.40,113.60"/>
    </edge>
    <edge id="4o" from="0" to="4" priority="46">
        <lane id="4o_0" index="0" allow="pedestrian" speed="11.11" length="86.40" width="2.00" shape="110.60,113.60 110.60,200.00"/>
        <lane id="4o_1" index="1" disallow="pedestrian" speed="11.11" length="86.40" shape="108.00,113.60 108.00,200.00"/>
        <lane id="4o_2" index="2" disallow="pedestrian" speed="11.11" length="86.40" shape="104.80,113.60 104.80,200.00"/>
        <lane id="4o_3" index="3" disallow="pedestrian" speed="11.11" length="86.40" shape="101.60,113.60 101.60,200.00"/>
    </edge>

    <tlLogic id="0" type="static" programID="0" offset="0">
        <phase duration="30" state="GGGrrrGGGrrrrrrrrGrG"/>
        <phase duration="5"  state="GGGrrrGGGrrrrrrrrrrr"/>
        <phase duration="5"  state="yyyrrryyyrrrrrrrrrrr"/>
        <phase duration="29" state="rrrGGGrrrGGGrrrrGrGr"/>
        <phase duration="5"  state="rrrGGGrrrGGGrrrrrrrr"/>
        <phase duration="5"  state="rrryyyrrryyyrrrrrrrr"/>
        <phase duration="6"  state="rrrrrrrrrGGGGGGGrrrr"/>
        <phase duration="5"  state="rrrrrrrrryyyyyyyrrrr"/>
    </tlLogic>

    <junction id="0" type="traffic_light" x="100.00" y="100.00" incLanes="4i_0 4i_1 4i_2 4i_3 2i_0 2i_1 2i_2 2i_3 3i_0 3i_1 3i_2 3i_3 1i_0 1i_1 1i_2 1i_3 :0_w1_0 :0_w2_0 :0_w3_0 :0_w0_0" intLanes=":0_0_0 :0_0_1 :0_0_2 :0_3_0 :0_3_1 :0_3_2 :0_6_0 :0_6_1 :0_6_2 :0_9_0 :0_9_1 :0_9_2 :0_16_0 :0_17_0 :0_18_0 :0_19_0 :0_c0_0 :0_c1_0 :0_c2_0 :0_c3_0" shape="88.40,113.60 111.60,113.60 111.82,112.49 112.10,112.10 112.49,111.82 112.99,111.66 113.60,111.60 113.60,88.40 112.49,88.18 112.10,87.90 111.82,87.51 111.66,87.01 111.60,86.40 88.40,86.40 88.18,87.51 87.90,87.90 87.51,88.18 87.01,88.34 86.40,88.40 86.40,111.60 87.51,111.82 87.90,112.10 88.18,112.49 88.34,112.99">
        <request index="0"  response="01010011000000000000" foes="01010011111000111000" cont="0"/>
        <request index="1"  response="01010011000000000000" foes="01010011111000111000" cont="0"/>
        <request index="2"  response="01010011000000000000" foes="01010011111000111000" cont="0"/>
        <request index="3"  response="10100000000111000111" foes="10101111000111000111" cont="0"/>
        <request index="4"  response="10100000000111000111" foes="10101111000111000111" cont="0"/>
        <request index="5"  response="10100000000111000111" foes="10101111000111000111" cont="0"/>
        <request index="6"  response="01010011000000000000" foes="01010011111000111000" cont="0"/>
        <request index="7"  response="01010011000000000000" foes="01010011111000111000" cont="0"/>
        <request index="8"  response="01010011000000000000" foes="01010011111000111000" cont="0"/>
        <request index="9"  response="10100000000111000111" foes="10100000000111000111" cont="0"/>
        <request index="10" response="10100000000111000111" foes="10100000000111000111" cont="0"/>
        <request index="11" response="10100000000111000111" foes="10100000000111000111" cont="0"/>
        <request index="12" response="10010000000111111111" foes="10010000000111111111" cont="1"/>
        <request index="13" response="10010000000111111111" foes="10010000000111111111" cont="1"/>
        <request index="14" response="10000000000000111000" foes="10000000000000111000" cont="1"/>
        <request index="15" response="10000000000000111000" foes="10000000000000111000" cont="1"/>
        <request index="16" response="00000000000000000000" foes="00000011000111000111" cont="0"/>
        <request index="17" response="00000000000000000000" foes="00000000111000111000" cont="0"/>
        <request index="18" response="00000000000000000000" foes="00000000000111000111" cont="0"/>
        <request index="19" response="00000000000000000000" foes="00001111111000111000" cont="0"/>
    </junction>
    <junction id="1" type="priority" x="0.00" y="100.00" incLanes="1o_0 1o_1 1o_2 1o_3" intLanes=":1_0_0" shape="0.00,100.00 0.00,111.60 0.00,100.00">
        <request index="0" response="0" foes="0" cont="0"/>
    </junction>
    <junction id="2" type="priority" x="200.00" y="100.00" incLanes="2o_0 2o_1 2o_2 2o_3" intLanes=":2_0_0" shape="200.00,100.00 200.00,88.40 200.00,100.00">
        <request index="0" response="0" foes="0" cont="0"/>
    </junction>
    <junction id="3" type="priority" x="100.00" y="0.00" incLanes="3o_0 3o_1 3o_2 3o_3" intLanes=":3_0_0" shape="100.00,0.00 88.40,0.00 100.00,0.00">
        <request index="0" response="0" foes="0" cont="0"/>
    </junction>
    <junction id="4" type="priority" x="100.00" y="200.00" incLanes="4o_0 4o_1 4o_2 4o_3" intLanes=":4_0_0" shape="100.00,200.00 111.60,200.00 100.00,200.00">
        <request index="0" response="0" foes="0" cont="0"/>
    </junction>

    <junction id=":0_16_0" type="internal" x="102.74" y="100.00" incLanes=":0_12_0 2i_1 2i_2 2i_3" intLanes=":0_0_0 :0_0_1 :0_0_2 :0_3_0 :0_3_1 :0_3_2 :0_6_0 :0_6_1 :0_6_2 :0_c0_0 :0_c3_0"/>
    <junction id=":0_17_0" type="internal" x="100.32" y="100.00" incLanes=":0_13_0 2i_1 2i_2 2i_3" intLanes=":0_0_0 :0_0_1 :0_0_2 :0_3_0 :0_3_1 :0_3_2 :0_6_0 :0_6_1 :0_6_2 :0_c0_0 :0_c3_0"/>
    <junction id=":0_18_0" type="internal" x="91.20" y="100.00" incLanes=":0_14_0 2i_1 2i_2 2i_3" intLanes=":0_3_0 :0_3_1 :0_3_2 :0_c3_0 :0_c3_0"/>
    <junction id=":0_19_0" type="internal" x="88.00" y="100.00" incLanes=":0_14_1 2i_1 2i_2 2i_3" intLanes=":0_3_0 :0_3_1 :0_3_2 :0_c3_0 :0_c3_0"/>

    <connection from="1i" to="2o" fromLane="0" toLane="0" via=":0_9_0" tl="0" linkIndex="9" dir="s" state="o"/>
    <connection from="1i" to="2o" fromLane="1" toLane="1" via=":0_9_1" tl="0" linkIndex="10" dir="s" state="o"/>
    <connection from="1i" to="2o" fromLane="1" toLane="2" via=":0_9_2" tl="0" linkIndex="11" dir="s" state="o"/>
    <connection from="1i" to="4o" fromLane="2" toLane="1" via=":0_12_0" tl="0" linkIndex="12" dir="l" state="o"/>
    <connection from="1i" to="4o" fromLane="2" toLane="2" via=":0_13_0" tl="0" linkIndex="13" dir="l" state="o"/>
    <connection from="1i" to="1o" fromLane="2" toLane="2" via=":0_14_0" tl="0" linkIndex="14" dir="t" state="o"/>
    <connection from="1i" to="1o" fromLane="3" toLane="3" via=":0_14_1" tl="0" linkIndex="15" dir="t" state="o"/>
    <connection from="1o" to="1i" fromLane="3" toLane="3" via=":1_0_0" dir="t" state="M"/>
    <connection from="2i" to="1o" fromLane="1" toLane="1" via=":0_3_0" tl="0" linkIndex="3" dir="s" state="o"/>
    <connection from="2i" to="1o" fromLane="2" toLane="2" via=":0_3_1" tl="0" linkIndex="4" dir="s" state="o"/>
    <connection from="2i" to="1o" fromLane="3" toLane="3" via=":0_3_2" tl="0" linkIndex="5" dir="s" state="o"/>
    <connection from="2o" to="2i" fromLane="3" toLane="3" via=":2_0_0" dir="t" state="M"/>
    <connection from="3i" to="4o" fromLane="1" toLane="1" via=":0_6_0" tl="0" linkIndex="6" dir="s" state="o"/>
    <connection from="3i" to="4o" fromLane="2" toLane="2" via=":0_6_1" tl="0" linkIndex="7" dir="s" state="o"/>
    <connection from="3i" to="4o" fromLane="3" toLane="3" via=":0_6_2" tl="0" linkIndex="8" dir="s" state="o"/>
    <connection from="3o" to="3i" fromLane="3" toLane="3" via=":3_0_0" dir="t" state="M"/>
    <connection from="4i" to="3o" fromLane="1" toLane="1" via=":0_0_0" tl="0" linkIndex="0" dir="s" state="o"/>
    <connection from="4i" to="3o" fromLane="2" toLane="2" via=":0_0_1" tl="0" linkIndex="1" dir="s" state="o"/>
    <connection from="4i" to="3o" fromLane="3" toLane="3" via=":0_0_2" tl="0" linkIndex="2" dir="s" state="o"/>
    <connection from="4o" to="4i" fromLane="3" toLane="3" via=":4_0_0" dir="t" state="M"/>

    <connection from=":0_0" to="3o" fromLane="0" toLane="1" dir="s" state="M"/>
    <connection from=":0_0" to="3o" fromLane="1" toLane="2" dir="s" state="M"/>
    <connection from=":0_0" to="3o" fromLane="2" toLane="3" dir="s" state="M"/>
    <connection from=":0_3" to="1o" fromLane="0" toLane="1" dir="s" state="M"/>
    <connection from=":0_3" to="1o" fromLane="1" toLane="2" dir="s" state="M"/>
    <connection from=":0_3" to="1o" fromLane="2" toLane="3" dir="s" state="M"/>
    <connection from=":0_6" to="4o" fromLane="0" toLane="1" dir="s" state="M"/>
    <connection from=":0_6" to="4o" fromLane="1" toLane="2" dir="s" state="M"/>
    <connection from=":0_6" to="4o" fromLane="2" toLane="3" dir="s" state="M"/>
    <connection from=":0_9" to="2o" fromLane="0" toLane="0" dir="s" state="M"/>
    <connection from=":0_9" to="2o" fromLane="1" toLane="1" dir="s" state="M"/>
    <connection from=":0_9" to="2o" fromLane="2" toLane="2" dir="s" state="M"/>
    <connection from=":0_12" to="4o" fromLane="0" toLane="1" via=":0_16_0" dir="l" state="m"/>
    <connection from=":0_16" to="4o" fromLane="0" toLane="1" dir="l" state="M"/>
    <connection from=":0_13" to="4o" fromLane="0" toLane="2" via=":0_17_0" dir="l" state="m"/>
    <connection from=":0_17" to="4o" fromLane="0" toLane="2" dir="l" state="M"/>
    <connection from=":0_14" to="1o" fromLane="0" toLane="2" via=":0_18_0" dir="t" state="m"/>
    <connection from=":0_18" to="1o" fromLane="0" toLane="2" dir="t" state="M"/>
    <connection from=":0_14" to="1o" fromLane="1" toLane="3" via=":0_19_0" dir="t" state="m"/>
    <connection from=":0_19" to="1o" fromLane="0" toLane="3" dir="t" state="M"/>
    <connection from=":1_0" to="1i" fromLane="0" toLane="3" dir="t" state="M"/>
    <connection from=":2_0" to="2i" fromLane="0" toLane="3" dir="t" state="M"/>
    <connection from=":3_0" to="3i" fromLane="0" toLane="3" dir="t" state="M"/>
    <connection from=":4_0" to="4i" fromLane="0" toLane="3" dir="t" state="M"/>

    <connection from=":0_c0" to=":0_w0" fromLane="0" toLane="0" dir="s" state="M"/>
    <connection from=":0_c1" to=":0_w1" fromLane="0" toLane="0" dir="s" state="M"/>
    <connection from=":0_c2" to=":0_w2" fromLane="0" toLane="0" dir="s" state="M"/>
    <connection from=":0_c3" to=":0_w3" fromLane="0" toLane="0" dir="s" state="M"/>
    <connection from=":0_w0" to=":0_c3" fromLane="0" toLane="0" tl="0" linkIndex="19" dir="s" state="M"/>
    <connection from=":0_w0" to="1o" fromLane="0" toLane="0" dir="s" state="M"/>
    <connection from="4i" to=":0_w0" fromLane="0" toLane="0" dir="s" state="M"/>
    <connection from=":0_w1" to=":0_c0" fromLane="0" toLane="0" tl="0" linkIndex="16" dir="s" state="M"/>
    <connection from=":0_w1" to="4o" fromLane="0" toLane="0" dir="s" state="M"/>
    <connection from="2i" to=":0_w1" fromLane="0" toLane="0" dir="s" state="M"/>
    <connection from=":0_w2" to=":0_c1" fromLane="0" toLane="0" tl="0" linkIndex="17" dir="s" state="M"/>
    <connection from=":0_w2" to="2o" fromLane="0" toLane="0" dir="s" state="M"/>
    <connection from="3i" to=":0_w2" fromLane="0" toLane="0" dir="s" state="M"/>
    <connection from=":0_w3" to=":0_c2" fromLane="0" toLane="0" tl="0" linkIndex="18" dir="s" state="M"/>
    <connection from=":0_w3" to="3o" fromLane="0" toLane="0" dir="s" state="M"/>
    <connection from="1i" to=":0_w3" fromLane="0" toLane="0" dir="s" state="M"/>
    <connection from=":1_w0" to="1i" fromLane="0" toLane="0" dir="s" state="M"/>
    <connection from="1o" to=":1_w0" fromLane="0" toLane="0" dir="s" state="M"/>
    <connection from=":2_w0" to="2i" fromLane="0" toLane="0" dir="s" state="M"/>
    <connection from="2o" to=":2_w0" fromLane="0" toLane="0" dir="s" state="M"/>
    <connection from=":3_w0" to="3i" fromLane="0" toLane="0" dir="s" state="M"/>
    <connection from="3o" to=":3_w0" fromLane="0" toLane="0" dir="s" state="M"/>
    <connection from=":4_w0" to="4i" fromLane="0" toLane="0" dir="s" state="M"/>
    <connection from="4o" to=":4_w0" fromLane="0" toLane="0" dir="s" state="M"/>
</net>
